*line regulation
.inc ../AE01.07.17.012.cir
.step param VSOURCE list 12 18
.param ILOAD=0.175
.param x_base=100m
.tran 0 {x_base} 0 uic startup
