*load regulation
.inc ../AE01.07.17.012.cir
.param VSOURCE=12
.step param ILOAD list 0.075 0.175
.param x_base=100m
.tran 0 {x_base} 0 uic startup
